@<TRIPOS>MOLECULE
RES
4 3 1 0 1
SMALL
NO_CHARGES
@<TRIPOS>CRYSIN
    1.0000     1.0000     1.0000    90.0000    90.0000    90.0000  1  1
@<TRIPOS>ATOM
       1 C            0.0000     0.0000     0.0000 C             1 RES     
       2 H            1.0700     0.0000     0.0000 H             1 RES     
       3 H           -0.3570     0.7690     0.6530 H             1 RES     
       4 H           -0.3570     0.1810    -0.9930 H             1 RES     
@<TRIPOS>BOND
       1        3        1 1
       2        1        4 1
       3        2        1 1
@<TRIPOS>SUBSTRUCTURE
       1 RES             1 RESIDUE    0 **** ROOT      0
